<?xml version="1.0" encoding="UTF-8"?>
<additional xmlns:xsi="http://www.w3.org/2001/XMLSchema-instance" xsi:noNamespaceSchemaLocation="http://sumo.dlr.de/xsd/additional_file.xsd">
    <tlLogic id="center" type="static" programID="1" offset="0">
        <phase duration="99999" state="GGGggrrrrrGGGggrrrrr"/>
        <phase duration="4"  state="yyyyyrrrrryyyyyrrrrr"/>
        <phase duration="2"  state="rrrrrrrrrrrrrrrrrrrr"/>

        <phase duration="99999" state="rrrrrGGGggrrrrrGGGgg"/>
        <phase duration="4"  state="rrrrryyyyyrrrrryyyyy"/>
        <phase duration="2"  state="rrrrrrrrrrrrrrrrrrrr"/>
    </tlLogic>
</additional>